Version 4
SHEET 1 1408 680
WIRE 64 -592 64 -640
WIRE 192 -592 192 -640
WIRE 64 -480 64 -512
WIRE 192 -480 192 -512
WIRE 944 -352 896 -352
WIRE 1072 -352 1072 -400
WIRE 1072 -352 1024 -352
WIRE 1072 -272 1072 -352
WIRE 896 -224 896 -352
WIRE 1008 -224 896 -224
WIRE 64 -176 32 -176
WIRE 272 -176 272 -224
WIRE 272 -176 256 -176
WIRE 688 -176 656 -176
WIRE 896 -176 896 -224
WIRE 896 -176 880 -176
WIRE 1072 -144 1072 -176
WIRE 1152 -144 1072 -144
WIRE 1072 -128 1072 -144
WIRE 64 -80 -16 -80
WIRE 304 -80 256 -80
WIRE 320 -80 304 -80
WIRE 688 -80 608 -80
WIRE 912 -80 880 -80
WIRE 928 -80 912 -80
WIRE 1072 -16 1072 -48
WIRE -16 32 -16 0
WIRE 304 32 304 0
WIRE 608 32 608 0
WIRE 912 32 912 0
FLAG 192 -480 0
FLAG -16 32 0
FLAG 304 32 0
FLAG 64 -480 0
FLAG 320 -80 V_SW_H
FLAG 192 -640 V_PULSE
FLAG 272 -224 +5V
FLAG 64 -640 +5V
FLAG 608 32 0
FLAG 656 -176 V_PULSE
FLAG 1072 -400 +5V
FLAG 1072 -16 0
FLAG 912 32 0
FLAG 928 -80 V_SW_F
FLAG 1152 -144 V_SW_L
FLAG 32 -176 V_PULSE
SYMBOL Optos\\TLP291_4 160 -128 R0
SYMATTR InstName U1
SYMBOL voltage 192 -608 R0
WINDOW 123 0 0 Left 0
WINDOW 39 0 0 Left 0
SYMATTR InstName V1
SYMATTR Value PULSE(0 5 2e-6 1e-7 1e-7 48e-6 50e-6 5)
SYMBOL voltage 64 -608 R0
WINDOW 123 0 0 Left 0
WINDOW 39 0 0 Left 0
SYMATTR InstName V2
SYMATTR Value 5
SYMBOL res -32 -96 R0
SYMATTR InstName R1
SYMATTR Value 200
SYMBOL res 288 -96 R0
SYMATTR InstName R2
SYMATTR Value 150
SYMATTR SpiceLine tol=1 pwr=0.1
SYMBOL Optos\\TLP291_4 784 -128 R0
SYMATTR InstName U2
SYMBOL res 592 -96 R0
SYMATTR InstName R3
SYMATTR Value 660
SYMBOL res 1040 -368 R90
WINDOW 0 0 56 VBottom 2
WINDOW 3 32 56 VTop 2
SYMATTR InstName R4
SYMATTR Value 100
SYMBOL pnp 1008 -176 M180
SYMATTR InstName Q1
SYMATTR Value bc858clt1g
SYMBOL res 1056 -144 R0
SYMATTR InstName R5
SYMATTR Value 1k
SYMBOL res 896 -96 R0
SYMATTR InstName R6
SYMATTR Value 1e-6
SYMATTR SpiceLine tol=1 pwr=0.1
TEXT 40 -424 Left 2 !.tran 200e-6
