.MODEL bc858clt1g PNP(IS=3.3473e-13 VAF=26.4329
+   BF=9999.05 NF=1.14496
+   IKF=0.395205 ISE=7.73071e-15 NE=1.35872 BR=0.1
+   NR=1.5 VAR=1.04888 IKR=1.64849 ISC=1.00015e-16
+   NC=3.96075 RB=12.6188 IRB=0.1 RBM=0.1
+   RE=0.7564 RC=3.782 XTB=49.9999 XTI=1
+   EG=1.05 CJE=1.2231e-11 VJE=0.4 MJE=0.23
+   TF=6.23476e-10 XTF=464.055 VTF=3988.01 ITF=4.20106
+   CJC=9.30259e-12 VJC=0.4 MJC=0.399551 XCJC=0.899999
+   FC=0.609561 CJS=0 VJS=0.75 MJS=0.5
+   TR=1e-07 PTF=0 KF=0 AF=1 mfg=ONSemi)